Version 4
SHEET 1 1572 1012
WIRE -288 112 -368 112
WIRE 32 112 -208 112
WIRE 928 112 32 112
WIRE 1248 112 928 112
WIRE -368 160 -368 112
WIRE 1248 208 1248 112
WIRE 1344 208 1248 208
WIRE 928 256 928 112
WIRE 928 256 896 256
WIRE 960 256 928 256
WIRE 896 304 896 256
WIRE 960 304 960 256
WIRE 1248 304 1248 208
WIRE 1344 304 1344 208
WIRE 1056 336 960 336
WIRE 32 368 32 112
WIRE 144 368 32 368
WIRE 464 368 400 368
WIRE 896 416 896 368
WIRE 928 416 896 416
WIRE 960 416 960 368
WIRE 960 416 928 416
WIRE 1248 448 1248 368
WIRE 1312 448 1248 448
WIRE 1344 448 1344 368
WIRE 1344 448 1312 448
WIRE 688 480 624 480
WIRE 928 512 928 416
WIRE 1312 512 1312 448
WIRE 624 544 624 480
WIRE 688 544 688 480
WIRE 1056 560 1056 336
WIRE 1056 560 928 560
WIRE 1216 592 1136 592
WIRE 1264 592 1216 592
WIRE 1216 640 1216 592
WIRE 624 672 624 608
WIRE 464 688 464 368
WIRE 464 688 384 688
WIRE 624 752 384 752
WIRE 1216 752 1216 720
WIRE 1312 752 1312 608
WIRE 1312 752 1216 752
WIRE 928 816 928 560
WIRE 928 816 384 816
WIRE 1312 816 1312 752
WIRE 1136 880 1136 592
WIRE 1136 880 384 880
FLAG 928 512 0
FLAG 1312 816 0
FLAG 688 544 0
FLAG -368 160 0
SYMBOL nmos 1264 512 R0
SYMATTR InstName M1
SYMBOL battery -192 112 R90
WINDOW 0 -32 56 VBottom 2
WINDOW 3 32 56 VTop 2
SYMATTR InstName V1
SYMATTR Value 6V
SYMATTR SpiceLine Rser=0
SYMBOL LT1085-3.3 272 368 R0
SYMATTR InstName U1
SYMBOL DIP8 272 784 R0
WINDOW 3 0 -122 Center 2
SYMATTR InstName RFduino
SYMBOL res 608 656 R0
SYMATTR InstName R1
SYMATTR Value 220R
SYMBOL res 1200 624 R0
SYMATTR InstName R2
SYMATTR Value 10kR
SYMBOL LED 640 608 R180
WINDOW 0 24 64 Left 2
WINDOW 3 24 0 Left 2
SYMATTR InstName D1
SYMBOL load 1232 304 R0
SYMATTR InstName I1
SYMATTR Value -0.5
SYMBOL load 944 304 R0
SYMATTR InstName I2
SYMATTR Value -0.2
SYMBOL cap 880 304 R0
SYMATTR InstName C1
SYMATTR Value 1µC
SYMBOL cap 1328 304 R0
SYMATTR InstName C2
SYMATTR Value 1µC
TEXT 392 672 Left 2 ;Vcc
TEXT 392 736 Left 2 ;GPIO2
TEXT 392 800 Left 2 ;GPIO3
TEXT 392 864 Left 2 ;GPIO4
TEXT 976 272 Left 2 ;Small Servo
TEXT 1368 264 Left 2 ;6V Gearbox
TEXT 304 288 Left 2 ;3.3V Regulator
TEXT -192 88 Left 2 ;4-Bank of AA Batteries
